Circuit: * C:\Users\Home\Downloads\DesignFiles\LTspice\NoiseAnalysis.asc

Direct Newton iteration failed to find .op point.  (Use ".option noopiter" to skip.)
Starting Gmin stepping
Gmin = 10
Gmin = 1.07374
Gmin = 0.115292
Gmin = 0.0123794
Gmin = 0.00132923
Gmin = 0.000142725
Gmin = 1.5325e-005
Gmin = 1.6455e-006
Gmin = 1.76685e-007
vernier = 0.5
Gmin = 3.29364e-008
vernier = 0.25
vernier = 0.125
vernier = 0.0625
vernier = 0.0833333
Gmin = 2.98576e-008
vernier = 0.111111
Gmin = 2.34847e-008
vernier = 0.148148
vernier = 0.197531
Gmin = 1.58971e-008
vernier = 0.263374
vernier = 0.351165
Gmin = 8.62601e-009
vernier = 0.46822
Gmin = 3.25618e-009
vernier = 0.624294
vernier = 0.832392
Gmin = 6.92493e-010
vernier = 1
Gmin = 8.23643e-011
Gmin = 8.8438e-012
Gmin = 9.49595e-013
Gmin = 1.01962e-013
Gmin = 0
Gmin stepping succeeded in finding the operating point.


Date: Wed Feb 17 21:01:16 2021
Total elapsed time: 0.074 seconds.

tnom = 27
temp = 27
method = trap
totiter = 1101
traniter = 0
tranpoints = 0
accept = 0
rejected = 0
matrix size = 44
fillins = 52
solver = Normal
Matrix Compiler1:     290 opcodes
Matrix Compiler2: 5.93 KB object code size  0.4/0.5/[0.3]

